iidm/iidm-xml-converter/src/test/resources/threeWindingsTransformerTapChangers.xml
<?xml version="1.0" encoding="UTF-8"?>
<iidm:network xmlns:iidm="http://www.itesla_project.eu/schema/iidm/1_0" id="three-windings-transformer" caseDate="2018-03-05T13:30:30.486+01:00" forecastDistance="0" sourceFormat="test">
    <iidm:substation id="SUBSTATION" country="FR">
        <iidm:voltageLevel id="VL_132" nominalV="132.0" lowVoltageLimit="118.8" highVoltageLimit="145.2" topologyKind="BUS_BREAKER">
            <iidm:busBreakerTopology>
                <iidm:bus id="BUS_132" v="133.584" angle="-9.62"/>
            </iidm:busBreakerTopology>
            <iidm:load id="LOAD_132" loadType="UNDEFINED" p0="7.6" q0="1.6" bus="BUS_132" connectableBus="BUS_132"/>
        </iidm:voltageLevel>
        <iidm:voltageLevel id="VL_33" nominalV="33.0" lowVoltageLimit="29.7" highVoltageLimit="36.3" topologyKind="BUS_BREAKER">
            <iidm:busBreakerTopology>
                <iidm:bus id="BUS_33" v="34.881" angle="-15.24"/>
            </iidm:busBreakerTopology>
            <iidm:load id="LOAD_33" loadType="UNDEFINED" p0="11.2" q0="7.5" bus="BUS_33" connectableBus="BUS_33" p="11.2" q="7.5"/>
        </iidm:voltageLevel>
        <iidm:voltageLevel id="VL_11" nominalV="11.0" lowVoltageLimit="9.9" highVoltageLimit="12.1" topologyKind="BUS_BREAKER">
            <iidm:busBreakerTopology>
                <iidm:bus id="BUS_11" v="11.781" angle="-15.24"/>
            </iidm:busBreakerTopology>
            <iidm:load id="LOAD_11" loadType="UNDEFINED" p0="0.0" q0="-10.6" bus="BUS_11" connectableBus="BUS_11" p="0.0" q="-10.6"/>
        </iidm:voltageLevel>
        <iidm:threeWindingsTransformer id="3WT" r1="17.424" x1="1.7424" g1="0.00573921028466483" b1="5.73921028466483E-4" ratedU1="132.0" r2="1.089" x2="0.1089" g2="0.0" b2="0.0" ratedU2="33.0" r3="0.121" x3="0.0121" g3="0.0" b3="0.0" ratedU3="11.0" bus1="BUS_132" connectableBus1="BUS_132" voltageLevelId1="VL_132" bus2="BUS_33" connectableBus2="BUS_33" voltageLevelId2="VL_33" bus3="BUS_11" connectableBus3="BUS_11" voltageLevelId3="VL_11">
            <iidm:ratioTapChanger1 lowTapPosition="0" tapPosition="2" targetDeadband="0.0" loadTapChangingCapabilities="true" regulating="false" targetV="132.0">
                <iidm:step r="0.8649000000000129" x="0.8649000000000129" g="-0.8574836241348693" b="-0.8574836241348693" rho="1.0043151895694895"/>
                <iidm:step r="0.6006250000000213" x="0.6006250000000213" g="-0.5970390343002507" b="-0.5970390343002507" rho="1.002998629111725"/>
                <iidm:step r="0.38439999999992924" x="0.38439999999992924" g="-0.3829280246730904" b="-0.3829280246730904" rho="1.0019201564995088"/>
            </iidm:ratioTapChanger1>
            <iidm:phaseTapChanger1 lowTapPosition="0" tapPosition="1" targetDeadband="0.0" regulationMode="FIXED_TAP" regulationValue="0.0">
                <iidm:step r="0.8649000000000129" x="0.8649000000000129" g="-0.8574836241348693" b="-0.8574836241348693" rho="1.0043151895694895" alpha="5.313224638415126"/>
                <iidm:step r="0.6006250000000213" x="0.6006250000000213" g="-0.5970390343002507" b="-0.5970390343002507" rho="1.002998629111725" alpha="4.431564716435844"/>
                <iidm:step r="0.38439999999992924" x="0.38439999999992924" g="-0.3829280246730904" b="-0.3829280246730904" rho="1.0019201564995088" alpha="3.547797069667891"/>
            </iidm:phaseTapChanger1>
            <iidm:ratioTapChanger2 lowTapPosition="0" tapPosition="2" loadTapChangingCapabilities="true" regulating="true" targetV="33.0">
                <iidm:terminalRef id="LOAD_33"/>
                <iidm:step r="0.9801" x="0.09801" g="0.08264462809917356" b="0.008264462809917356" rho="0.9"/>
                <iidm:step r="1.089" x="0.1089" g="0.09182736455463728" b="0.009182736455463728" rho="1.0"/>
                <iidm:step r="1.1979" x="0.11979" g="0.10101010101010101" b="0.0101010101010101" rho="1.1"/>
            </iidm:ratioTapChanger2>
            <iidm:phaseTapChanger2 lowTapPosition="0" tapPosition="2" targetDeadband="0.0" regulationMode="FIXED_TAP" regulationValue="0.0">
                <iidm:step r="-1.365817750000009" x="-1.365817750000009" g="1.3847306469659593" b="-0.8574836241348693" rho="0.9931474324087035" alpha="0.6919900845542891"/>
                <iidm:step r="0.0" x="0.0" g="0.0" b="0.0" rho="1.0" alpha="0.0"/>
                <iidm:step r="1.4041822500000078" x="1.4041822500000078" g="-1.3847380047286029" b="-1.3847380047286029" rho="1.0069964361903174" alpha="-0.6824728416187119"/>
            </iidm:phaseTapChanger2>
            <iidm:ratioTapChanger3 lowTapPosition="0" tapPosition="0" loadTapChangingCapabilities="true" regulating="false" targetV="11.0">
                <iidm:terminalRef id="LOAD_11"/>
                <iidm:step r="0.1089" x="0.01089" g="0.8264462809917356" b="0.08264462809917356" rho="0.9"/>
                <iidm:step r="0.121" x="0.0121" g="0.8264462809917356" b="0.08264462809917356" rho="1.0"/>
                <iidm:step r="0.1331" x="0.01331" g="0.9090909090909092" b="0.09090909090909093" rho="1.1"/>
            </iidm:ratioTapChanger3>
            <iidm:phaseTapChanger3 lowTapPosition="0" tapPosition="2" targetDeadband="0.0" regulationMode="FIXED_TAP" regulationValue="0.0">
                <iidm:step r="0.024025000000005292" x="0.024025000000005292" g="-0.024019229380145557" b="-0.024019229380145557" rho="1.0001201177858587" alpha="-0.8880134719294318"/>
                <iidm:step r="0.09610000000002117" x="0.09610000000002117" g="-0.09600773656518458" b="-0.09600773656518458" rho="1.0004803846153107" alpha="-1.7756005265572734"/>
                <iidm:step r="0.21622500000000322" x="0.21622500000000322" g="-0.21575847623476196" b="-0.21575847623476196" rho="1.001080541215341" alpha="-2.662335973879195"/>
            </iidm:phaseTapChanger3>
        </iidm:threeWindingsTransformer>
    </iidm:substation>
</iidm:network>
